LAMMPS (3 Mar 2020)
# sample LAMMPS input script for viscosity of 3d LJ liquid
# use tethered shearing wall, thermostat via fix langevin

#This is needed for bulk runs to allow job sizing
processors 1 1 1

# Impose lj style fluid with Heat

dimension					3
boundary					p f p
units						lj
atom_modify 				map array

variable					skin equal 0.1

variable					minx equal -23.45
variable					maxx equal 23.45
variable					miny equal 0
variable					maxy equal 31.3
variable					minz equal 0
variable					maxz equal 4.81

variable					lattice equal 0.81
variable					atomMass equal 1

variable					epsilon equal 1
variable					sigma equal 1
variable					epsilonWF equal 0.6
variable					sigmaWF equal 1
variable					rCutOff equal 2.2*1

variable					T equal 1.1

variable					dt equal 0.005*0.1

variable					thickness equal 2

#atom_style					atomic
#neigh_modify				delay 5

# create geometry

lattice						fcc 0.81
Lattice spacing in x,y,z = 1.70291 1.70291 1.70291
region						box block -23.45 23.45 0 31.3 0 4.81 units box
create_box					2 box
Created orthogonal box = (-23.45 0 0) to (23.45 31.3 4.81)
create_atoms				1 box
Created 6105 atoms

mass						1 1
mass						2 1

variable					minBx equal -23.45
variable					maxBx equal 23.45
variable					minBy equal 0
variable					maxBy equal 0+2
variable					minBz equal 0
variable					maxBz equal 4.81
region						bottom block -23.45 23.45 0 2 0 4.81 units box
set							region bottom type 2
  495 settings made for type
group						boundary region bottom
495 atoms in group boundary
group						moving subtract all boundary
5610 atoms in group moving

# LJ potentials

pair_style					lj/cut 2.2
pair_coeff					* * 1 1 2.2
pair_modify					shift yes

velocity					moving create 1.1 482748 mom yes
velocity					boundary create 0 482748 mom yes
fix							1 all nve
fix 						2 all langevin 1.1 1.1 1 48279
#fix							cfd all couple/cfd couple_every 50 mpi
#fix							cfd2 all couple/cfd/force/md 1 50 50
fix 						freeze boundary setforce 0.0 0.0 0.0 #region bottom
fix							topWall all wall/lj126 yhi 31.3 1 1 2.2 units box
#compute 					1 all pair/local dist eng fx fy fz
#fix							fxyz all ave/atom 1 1 50 fx fy fz f_fpotential[1] f_fpotential[2] f_fpotential[3]

# run with indenter

timestep					0.0005

thermo						100
#dump                        vtk all custom/vtk 5000 openfoam/dump*.vtk id type x y z vx vy vz fx fy fz
#dump						dmp all custom 101 ../DEM/post/dump.lammpstrj id type x y z vx vy vz #v_test
#dump						dmp all custom 50 ../DEM/post/dump.*.liggghts_init id type fx f_fxyz[1] f_fxyz[4] f_fpotential[1] f_avetimepotentialforce[1] f_avetimetotalforce[1]
#dump						dmp all custom 100 ../DEM/post/dump.*.liggghts_init vx f_avetimevelocity[1] vy f_avetimevelocity[2] vz f_avetimevelocity[3] fx f_avetimepotentialforce[1] fy f_avetimepotentialforce[2] fz f_avetimepotentialforce[3]
#dump						dmp all custom 100 ../DEM/post/dump.*.liggghts_init f_atomMass
run							5000
  update every 1 steps, delay 10 steps, check yes
Step Temp E_pair E_mol TotEng Press
0    1.0107962   -5.1990395            0   -3.6830935   -1.3068934
Averages over the last 26 of 51 rows, steps 2500 to 5000:
Temp E_pair E_mol TotEng Press
1.63322 -3.98856 0 -1.53913 7.59138
Loop time of 14.6002 on 1 procs for 5000 steps with 6105 atoms
